44
****|SAP-35|sdf|1|dock4
S         62.73630       24.79560       23.17500
C         63.43270       23.67130       24.28010
C         64.44900       22.92670       23.67810
C         64.62230       23.30060       22.30290
C         63.75880       24.29470       21.90590
H         63.67840       24.75150       20.92910
H         65.34890       22.85070       21.63810
C         65.12290       21.95700       24.46090
C         64.76950       21.73550       25.80500
C         63.74860       22.50060       26.37120
C         63.07530       23.47360       25.62630
H         62.28280       24.06210       26.08020
H         63.45680       22.34770       27.40910
C         65.47880       20.68470       26.62620
S         64.98370       19.00650       26.13680
C         64.94210       18.25690       27.69340
N         63.70100       17.97470       28.11420
C         63.52090       17.37380       29.31350
O         62.38700       17.07230       29.66960
N         64.62180       17.13910       30.07410
C         65.77300       17.45770       29.60200
S         67.17560       17.17470       30.60760
C         67.39270       15.42640       30.18570
C         68.62880       15.20100       29.35110
C         69.42020       16.28700       28.95340
C         70.55850       16.07460       28.18410
F         71.29840       17.12230       27.79950
C         70.93850       14.79450       27.80160
C         70.17310       13.68890       28.19890
C         69.01800       13.90420       28.97340
H         68.41720       13.05010       29.28840
C         70.58390       12.30100       27.77500
F         71.83500       11.97950       28.20470
F         70.59740       12.12830       26.42400
F         69.75910       11.33570       28.26640
H         71.83360       14.66740       27.19710
H         69.16100       17.30430       29.23610
H         67.45190       14.83640       31.10790
H         66.51580       15.06180       29.63750
N         65.99390       18.01940       28.38240
H         62.89030       18.16580       27.54780
H         65.26310       20.83770       27.68930
H         66.56200       20.79660       26.49880
H         65.91430       21.36880       24.00150
